$ MAST NastranIO class example input file.
$ Adapted from application problem "acoss.d"
$ from Astros version 12p5.
$ pyNastran requires SOL and CEND statements, but NastranIO does not utilize solution control data. The Nastran case
$ control section is not required.
SOL 101
CEND
$ BEGIN BULK bulk data keywords are required by pyNastran.
BEGIN BULK
$ Node/grid definitions.
GRID           1        -275.591      0.      0.
GRID           2         -157.48  196.85      0.
GRID           3         -157.48 -196.85      0.
GRID           4              0.  196.85      0.
GRID           5          157.48  196.85      0.
GRID           6          157.48 -196.85      0.
GRID           7         275.591      0.      0.
GRID           8        -275.591      0.   78.74
GRID           9         -157.48  196.85   78.74
GRID          10         -157.48 -196.85   78.74
GRID          11          157.48  196.85   78.74
GRID          12          157.48 -196.85   78.74
GRID          13         275.591      0.   78.74
GRID          14         -236.22      0. 472.441
GRID          15         -157.48  157.48 472.441
GRID          16         -157.48 -157.48 472.441
GRID          17          157.48  157.48 472.441
GRID          18          157.48 -157.48 472.441
GRID          19          236.22      0. 472.441
GRID          20         -196.85      0. 866.142
$ ... 13 like lines cut
$ Element definitions.
CBAR           1   10001       1       2.3583339.8641283.3533823
CBAR           2   10001       1       3.3583339.8641283.3533823
CBAR           3   10001       2       3.3583339.8641283.3533823
CBAR           4   10001       2       4.3583339.8641283.3533823
CBAR           5   10001       3       4.3583339.8641283.3533823
CBAR           6   10001       4       5.3583339.8641283.3533823
CBAR           7   10001       4       6.3583339.8641283.3533823
CBAR           8   10001       3       6.3583339.8641283.3533823
CBAR           9   10001       5       6.3583339.8641283.3533823
CBAR          10   10001       5       7.3583339.8641283.3533823
CBAR          11   10001       6       7.3583339.8641283.3533823
CBAR          12   10001       1       8.3583339.8641283.3533823
CBAR          13   10001       2       9.3583339.8641283.3533823
CBAR          14   10001       3      10.3583339.8641283.3533823
CBAR          15   10001       5      11.3583339.8641283.3533823
CBAR          16   10001       6      12.3583339.8641283.3533823
CBAR          17   10001       7      13.3583339.8641283.3533823
CBAR          18   10001       3       8.3583339.8641283.3533823
CBAR          19   10001       2       8.3583339.8641283.3533823
CBAR          20   10001       3       9.3583339.8641283.3533823
$ ... 93 like lines cut
$ Property definitions. Note that property cards are only utilized by NastranIO to assign elements to subdomains.
PBAR       10001       1     10.8.3333338.333333 14.0625
$ pyNastran requires valid material cards for all property cards, but they are not utilized by NastranIO.
MAT1           1  1.85+7              0. .000142
$ SPC definitions are used by NastranIO only to assign nodes to boundary IDs in libMesh/MAST. The DOF IDs specified
$ in the SPC defition are not utilized by NastranIO.
SPC1           1  123456       1       2       3       4       5       6
               7
$ The ENDDATA bulk data entry is not required by pyNastran or NastranIO, but we include it to indicate the end of
$ bulk data input entry.
ENDDATA